Version 4.1
SHEET 1 2120 932
WIRE 144 16 -128 16
WIRE 272 16 208 16
WIRE 1264 16 1024 16
WIRE 1440 16 1328 16
WIRE 1696 16 1632 16
WIRE 1840 16 1776 16
WIRE 672 32 448 32
WIRE 816 32 736 32
WIRE 1632 96 1632 16
WIRE 1696 96 1632 96
WIRE 1840 96 1840 16
WIRE 1840 96 1760 96
WIRE -272 144 -432 144
WIRE -128 144 -128 16
WIRE -128 144 -192 144
WIRE -80 144 -128 144
WIRE 32 144 0 144
WIRE 144 144 32 144
WIRE -432 160 -432 144
WIRE 272 160 272 16
WIRE 272 160 240 160
WIRE 352 160 272 160
WIRE 448 160 448 32
WIRE 448 160 432 160
WIRE 480 160 448 160
WIRE 576 160 560 160
WIRE 672 160 576 160
WIRE 144 176 64 176
WIRE 816 176 816 32
WIRE 816 176 768 176
WIRE 880 176 816 176
WIRE 1024 176 1024 16
WIRE 1024 176 960 176
WIRE 1056 176 1024 176
WIRE 1152 176 1136 176
WIRE 1264 176 1152 176
WIRE 672 192 640 192
WIRE 1440 192 1440 16
WIRE 1440 192 1360 192
WIRE 1520 192 1440 192
WIRE 1632 192 1632 96
WIRE 1632 192 1600 192
WIRE 1696 192 1632 192
WIRE 1264 208 1232 208
WIRE 1840 208 1840 96
WIRE 1840 208 1792 208
WIRE 32 224 32 144
WIRE 1152 224 1152 176
WIRE 1696 224 1664 224
WIRE 64 240 64 176
WIRE 272 240 272 160
WIRE 272 240 64 240
WIRE 576 240 576 160
WIRE 640 240 640 192
WIRE 816 240 816 176
WIRE 816 240 640 240
WIRE 1152 240 1152 224
WIRE -432 288 -432 240
WIRE 1232 288 1232 208
WIRE 1440 288 1440 192
WIRE 1440 288 1232 288
FLAG 32 288 0
FLAG 576 304 0
FLAG -432 288 0
FLAG 1840 208 Vo
IOPIN 1840 208 Out
FLAG 1664 224 0
FLAG 1152 288 0
SYMBOL res 16 128 R90
WINDOW 0 0 56 VBottom 2
WINDOW 3 32 56 VTop 2
SYMATTR InstName R3
SYMATTR Value 11.368k
SYMBOL res -176 128 R90
WINDOW 0 -3 63 VBottom 2
WINDOW 3 32 56 VTop 2
SYMATTR InstName R4
SYMATTR Value 11.368k
SYMBOL res 448 144 R90
WINDOW 0 0 56 VBottom 2
WINDOW 3 32 56 VTop 2
SYMATTR InstName R5
SYMATTR Value 16.4k
SYMBOL res 576 144 R90
WINDOW 0 0 56 VBottom 2
WINDOW 3 32 56 VTop 2
SYMATTR InstName R6
SYMATTR Value 16.4k
SYMBOL res 976 160 R90
WINDOW 0 0 56 VBottom 2
WINDOW 3 32 56 VTop 2
SYMATTR InstName R7
SYMATTR Value 46k
SYMBOL res 1152 160 R90
WINDOW 0 0 56 VBottom 2
WINDOW 3 32 56 VTop 2
SYMATTR InstName R8
SYMATTR Value 46k
SYMBOL cap 208 0 R90
WINDOW 0 0 32 VBottom 2
WINDOW 3 32 32 VTop 2
SYMATTR InstName C1
SYMATTR Value 1n
SYMBOL cap 48 288 R180
WINDOW 0 24 56 Left 2
WINDOW 3 24 8 Left 2
SYMATTR InstName C2
SYMATTR Value 0.81n
SYMBOL cap 592 304 R180
WINDOW 0 24 56 Left 2
WINDOW 3 24 8 Left 2
SYMATTR InstName C3
SYMATTR Value 0.389n
SYMBOL cap 1168 288 R180
WINDOW 0 24 56 Left 2
WINDOW 3 24 8 Left 2
SYMATTR InstName C4
SYMATTR Value 49.5p
SYMBOL cap 672 16 M90
WINDOW 0 0 32 VBottom 2
WINDOW 3 32 32 VTop 2
SYMATTR InstName C5
SYMATTR Value 1n
SYMBOL cap 1264 0 M90
WINDOW 0 0 32 VBottom 2
WINDOW 3 32 32 VTop 2
SYMATTR InstName C6
SYMATTR Value 1n
SYMBOL voltage -432 144 R0
WINDOW 123 24 124 Left 2
WINDOW 39 0 0 Left 0
SYMATTR Value2 AC 1
SYMATTR InstName V1
SYMATTR Value ""
SYMBOL res 1616 176 R90
WINDOW 0 0 56 VBottom 2
WINDOW 3 32 56 VTop 2
SYMATTR InstName R13
SYMATTR Value 10.24k
SYMBOL cap 1760 80 R90
WINDOW 0 0 32 VBottom 2
WINDOW 3 28 37 VTop 2
SYMATTR InstName C7
SYMATTR Value 100p
SYMBOL res 1792 0 R90
WINDOW 0 0 56 VBottom 2
WINDOW 3 32 56 VTop 2
SYMATTR InstName R14
SYMATTR Value 102.41k
SYMBOL ideal 704 176 R0
WINDOW 39 77 72 Top 2
SYMATTR InstName U2
SYMBOL ideal 1296 192 R0
WINDOW 39 10 -73 Top 2
SYMATTR InstName U3
SYMBOL ideal 1728 208 R0
WINDOW 0 -1 -37 Bottom 2
SYMATTR InstName U4
SYMBOL ideal 176 160 R0
WINDOW 39 61 74 Top 2
SYMATTR InstName U1
TEXT -56 -80 Left 2 !.ac dec 200 100 100k
