Version 4.1
SHEET 1 2040 680
WIRE 80 16 -192 16
WIRE 208 16 144 16
WIRE 1360 16 1120 16
WIRE 1536 16 1424 16
WIRE 1840 16 1776 16
WIRE 1952 16 1920 16
WIRE 656 32 432 32
WIRE 800 32 720 32
WIRE 1776 96 1776 16
WIRE 1840 96 1776 96
WIRE 1952 96 1952 16
WIRE 1952 96 1904 96
WIRE -336 144 -432 144
WIRE -192 144 -192 16
WIRE -192 144 -256 144
WIRE -144 144 -192 144
WIRE -32 144 -64 144
WIRE 80 144 -32 144
WIRE -432 160 -432 144
WIRE 208 160 208 16
WIRE 208 160 176 160
WIRE 336 160 208 160
WIRE 432 160 432 32
WIRE 432 160 416 160
WIRE 464 160 432 160
WIRE 560 160 544 160
WIRE 656 160 560 160
WIRE 80 176 0 176
WIRE 800 176 800 32
WIRE 800 176 752 176
WIRE 976 176 800 176
WIRE 1120 176 1120 16
WIRE 1120 176 1056 176
WIRE 1152 176 1120 176
WIRE 1248 176 1232 176
WIRE 1360 176 1248 176
WIRE 656 192 624 192
WIRE 1536 192 1536 16
WIRE 1536 192 1456 192
WIRE 1664 192 1536 192
WIRE 1776 192 1776 96
WIRE 1776 192 1744 192
WIRE 1840 192 1776 192
WIRE 1360 208 1328 208
WIRE 1952 208 1952 96
WIRE 1952 208 1936 208
WIRE -32 224 -32 144
WIRE 1840 224 1808 224
WIRE 560 240 560 160
WIRE 624 240 624 192
WIRE 800 240 800 176
WIRE 800 240 624 240
WIRE 1248 240 1248 176
WIRE 0 256 0 176
WIRE 208 256 208 160
WIRE 208 256 0 256
WIRE 1808 272 1808 224
WIRE -432 288 -432 240
WIRE 1328 288 1328 208
WIRE 1536 288 1536 192
WIRE 1536 288 1328 288
WIRE 576 464 512 464
WIRE 880 480 784 480
WIRE 1216 496 1120 496
WIRE 1328 496 1296 496
WIRE 512 512 512 464
WIRE 1120 512 1120 496
WIRE 784 528 784 480
FLAG -32 288 0
FLAG 512 592 0
FLAG 784 608 0
FLAG 560 304 0
FLAG 1120 592 0
FLAG 1248 304 0
FLAG -432 288 0
FLAG 1952 208 Vo
IOPIN 1952 208 Out
FLAG 1808 272 0
FLAG 656 464 0
FLAG 960 480 0
FLAG 1328 496 0
SYMBOL ideal 112 160 M180
WINDOW 39 -10 -68 Top 2
SYMATTR InstName U1
SYMBOL ideal 688 176 M180
WINDOW 39 10 -59 Top 2
SYMATTR InstName U2
SYMBOL ideal 1392 192 M180
WINDOW 39 6 -63 Top 2
SYMATTR InstName U3
SYMBOL ideal 1872 208 M180
WINDOW 39 17 -68 Top 2
SYMATTR InstName U4
SYMBOL res 496 496 R0
SYMATTR InstName R1
SYMATTR Value 10k
SYMBOL res 672 448 R90
WINDOW 0 0 56 VBottom 2
WINDOW 3 41 61 VTop 2
SYMATTR InstName R2
SYMATTR Value 1.96k
SYMBOL res -48 128 R90
WINDOW 0 0 56 VBottom 2
WINDOW 3 32 56 VTop 2
SYMATTR InstName R3
SYMATTR Value 22.1k
SYMBOL res -240 128 R90
WINDOW 0 0 56 VBottom 2
WINDOW 3 32 56 VTop 2
SYMATTR InstName R4
SYMATTR Value 22.1k
SYMBOL res 432 144 R90
WINDOW 0 0 56 VBottom 2
WINDOW 3 32 56 VTop 2
SYMATTR InstName R5
SYMATTR Value 36.5k
SYMBOL res 560 144 R90
WINDOW 0 0 56 VBottom 2
WINDOW 3 32 56 VTop 2
SYMATTR InstName R6
SYMATTR Value 36.5k
SYMBOL res 1072 160 R90
WINDOW 0 0 56 VBottom 2
WINDOW 3 32 56 VTop 2
SYMATTR InstName R7
SYMATTR Value 75k
SYMBOL res 1248 160 R90
WINDOW 0 0 56 VBottom 2
WINDOW 3 32 56 VTop 2
SYMATTR InstName R8
SYMATTR Value 75k
SYMBOL res 976 464 R90
WINDOW 0 0 56 VBottom 2
WINDOW 3 32 56 VTop 2
SYMATTR InstName R9
SYMATTR Value 7.5k
SYMBOL res 1312 480 R90
WINDOW 0 0 56 VBottom 2
WINDOW 3 32 56 VTop 2
SYMATTR InstName R10
SYMATTR Value 15.4k
SYMBOL cap 144 0 R90
WINDOW 0 0 32 VBottom 2
WINDOW 3 32 32 VTop 2
SYMATTR InstName C1
SYMATTR Value 10n
SYMBOL cap -16 288 R180
WINDOW 0 24 56 Left 2
WINDOW 3 24 8 Left 2
SYMATTR InstName C2
SYMATTR Value 82p
SYMBOL cap 576 304 R180
WINDOW 0 24 56 Left 2
WINDOW 3 24 8 Left 2
SYMATTR InstName C3
SYMATTR Value 200p
SYMBOL cap 1264 304 R180
WINDOW 0 24 56 Left 2
WINDOW 3 24 8 Left 2
SYMATTR InstName C4
SYMATTR Value 300p
SYMBOL cap 656 16 M90
WINDOW 0 0 32 VBottom 2
WINDOW 3 32 32 VTop 2
SYMATTR InstName C5
SYMATTR Value 2.2n
SYMBOL cap 1360 0 M90
WINDOW 0 0 32 VBottom 2
WINDOW 3 32 32 VTop 2
SYMATTR InstName C6
SYMATTR Value 750p
SYMBOL res 768 512 R0
SYMATTR InstName R11
SYMATTR Value 10k
SYMBOL res 1104 496 R0
SYMATTR InstName R12
SYMATTR Value 10k
SYMBOL voltage -432 144 R0
WINDOW 123 24 124 Left 2
WINDOW 39 0 0 Left 0
SYMATTR Value2 AC 1
SYMATTR InstName V1
SYMATTR Value ""
SYMBOL res 1760 176 R90
WINDOW 0 0 56 VBottom 2
WINDOW 3 32 56 VTop 2
SYMATTR InstName R13
SYMATTR Value 7.32k
SYMBOL cap 1904 80 R90
WINDOW 0 0 32 VBottom 2
WINDOW 3 32 32 VTop 2
SYMATTR InstName C7
SYMATTR Value 680p
SYMBOL res 1936 0 R90
WINDOW 0 0 56 VBottom 2
WINDOW 3 32 56 VTop 2
SYMATTR InstName R14
SYMATTR Value 73.2k
TEXT -24 512 Left 2 !.ac dec 100 100 100k
