Version 4.1
SHEET 1 2120 680
WIRE 128 16 -144 16
WIRE 256 16 192 16
WIRE 1168 16 928 16
WIRE 1344 16 1232 16
WIRE 1616 16 1552 16
WIRE 1760 16 1696 16
WIRE 608 32 384 32
WIRE 752 32 672 32
WIRE 1552 96 1552 16
WIRE 1616 96 1552 96
WIRE 1760 96 1760 16
WIRE 1760 96 1680 96
WIRE -288 144 -544 144
WIRE -144 144 -144 16
WIRE -144 144 -208 144
WIRE -96 144 -144 144
WIRE 16 144 -16 144
WIRE 128 144 16 144
WIRE -544 160 -544 144
WIRE 256 160 256 16
WIRE 256 160 224 160
WIRE 288 160 256 160
WIRE 384 160 384 32
WIRE 384 160 368 160
WIRE 416 160 384 160
WIRE 512 160 496 160
WIRE 608 160 512 160
WIRE 128 176 48 176
WIRE 752 176 752 32
WIRE 752 176 704 176
WIRE 784 176 752 176
WIRE 928 176 928 16
WIRE 928 176 864 176
WIRE 960 176 928 176
WIRE 1056 176 1040 176
WIRE 1168 176 1056 176
WIRE 608 192 576 192
WIRE 1344 192 1344 16
WIRE 1344 192 1264 192
WIRE 1440 192 1344 192
WIRE 1552 192 1552 96
WIRE 1552 192 1520 192
WIRE 1616 192 1552 192
WIRE 1168 208 1136 208
WIRE 1760 208 1760 96
WIRE 1760 208 1712 208
WIRE 16 224 16 144
WIRE 1616 224 1584 224
WIRE 48 240 48 176
WIRE 256 240 256 160
WIRE 256 240 48 240
WIRE 512 240 512 160
WIRE 576 240 576 192
WIRE 752 240 752 176
WIRE 752 240 576 240
WIRE 1056 240 1056 176
WIRE -544 288 -544 240
WIRE 1136 288 1136 208
WIRE 1344 288 1344 192
WIRE 1344 288 1136 288
FLAG 16 288 0
FLAG 512 304 0
FLAG 1056 304 0
FLAG -544 288 0
FLAG 1760 208 Vo
IOPIN 1760 208 Out
FLAG 1584 224 0
SYMBOL res 0 128 R90
WINDOW 0 0 56 VBottom 2
WINDOW 3 32 56 VTop 2
SYMATTR InstName R3
SYMATTR Value {uni(11.368k, 0.01)}
SYMATTR SpiceLine tol=1
SYMBOL res -192 128 R90
WINDOW 0 -3 63 VBottom 2
WINDOW 3 34 98 VTop 2
SYMATTR InstName R4
SYMATTR Value {uni(11.368k, 0.01)}
SYMBOL res 384 144 R90
WINDOW 0 0 56 VBottom 2
WINDOW 3 -53 58 VTop 2
SYMATTR InstName R5
SYMATTR Value {uni(16.4k, 0.01)}
SYMBOL res 512 144 R90
WINDOW 0 0 56 VBottom 2
WINDOW 3 32 56 VTop 2
SYMATTR InstName R6
SYMATTR Value {uni(16.4k, 0.01)}
SYMBOL res 880 160 R90
WINDOW 0 0 56 VBottom 2
WINDOW 3 -58 54 VTop 2
SYMATTR InstName R7
SYMATTR Value {uni(46k, 0.01)}
SYMBOL res 1056 160 R90
WINDOW 0 0 56 VBottom 2
WINDOW 3 32 56 VTop 2
SYMATTR InstName R8
SYMATTR Value {uni(46k, 0.01)}
SYMBOL cap 192 0 R90
WINDOW 0 0 32 VBottom 2
WINDOW 3 32 32 VTop 2
SYMATTR InstName C1
SYMATTR Value {uni(1n, 0.05)}
SYMATTR SpiceLine V=5
SYMBOL cap 32 288 R180
WINDOW 0 24 56 Left 2
WINDOW 3 24 8 Left 2
SYMATTR InstName C2
SYMATTR Value {uni(0.81n, 0.05)}
SYMBOL cap 528 304 R180
WINDOW 0 24 56 Left 2
WINDOW 3 24 8 Left 2
SYMATTR InstName C3
SYMATTR Value {uni(0.389n, 0.05)}
SYMBOL cap 1072 304 R180
WINDOW 0 24 56 Left 2
WINDOW 3 24 8 Left 2
SYMATTR InstName C4
SYMATTR Value {uni(49.5p, 0.05)}
SYMBOL cap 608 16 M90
WINDOW 0 0 32 VBottom 2
WINDOW 3 32 32 VTop 2
SYMATTR InstName C5
SYMATTR Value {uni(1n, 0.05)}
SYMBOL cap 1168 0 M90
WINDOW 0 0 32 VBottom 2
WINDOW 3 32 32 VTop 2
SYMATTR InstName C6
SYMATTR Value {uni(1n, 0.05)}
SYMBOL voltage -544 144 R0
WINDOW 123 24 124 Left 2
WINDOW 39 0 0 Left 0
SYMATTR Value2 AC 1
SYMATTR InstName V1
SYMATTR Value ""
SYMBOL res 1536 176 R90
WINDOW 0 0 56 VBottom 2
WINDOW 3 32 56 VTop 2
SYMATTR InstName R13
SYMATTR Value {uni(10.24k, 0.01)}
SYMBOL cap 1680 80 R90
WINDOW 0 0 32 VBottom 2
WINDOW 3 32 32 VTop 2
SYMATTR InstName C7
SYMATTR Value {uni(100p, 0.05)}
SYMBOL res 1712 0 R90
WINDOW 0 0 56 VBottom 2
WINDOW 3 32 56 VTop 2
SYMATTR InstName R14
SYMATTR Value {uni(102.41k, 0.01)}
SYMBOL onepole 176 160 R0
WINDOW 39 -2 -262 Top 2
SYMATTR InstName U1
SYMBOL onepole 656 176 R0
WINDOW 39 0 -242 Top 2
SYMATTR InstName U2
SYMBOL onepole 1216 192 R0
WINDOW 39 -33 -296 Top 2
SYMATTR InstName U3
SYMBOL onepole 1664 208 R0
WINDOW 39 0 -276 Top 2
SYMATTR InstName U4
TEXT 376 632 Left 2 !.ac dec 100 100 100k
TEXT 376 528 Left 2 !.function uni(nom, tol) flat(nom*tol)+nom
TEXT 376 576 Left 2 !.step param run 0 499 1
