Version 4.1
SHEET 1 880 680
WIRE 128 80 -64 80
WIRE -64 112 -64 80
WIRE 128 144 128 80
WIRE 160 144 128 144
WIRE 400 160 256 160
WIRE 160 176 128 176
WIRE -64 304 -64 192
WIRE 48 304 -64 304
WIRE 128 304 128 176
WIRE 288 304 128 304
WIRE 400 304 400 160
WIRE 400 304 368 304
WIRE -64 320 -64 304
FLAG -64 320 0
FLAG 400 160 Vo
IOPIN 400 160 Out
SYMBOL ideal 192 160 R0
SYMATTR InstName U1
SYMBOL res 384 288 R90
WINDOW 0 0 56 VBottom 2
WINDOW 3 32 56 VTop 2
SYMATTR InstName R1
SYMATTR Value 10g
SYMBOL res 144 288 R90
WINDOW 0 0 56 VBottom 2
WINDOW 3 32 56 VTop 2
SYMATTR InstName R2
SYMATTR Value 10g
SYMBOL voltage -64 96 R0
WINDOW 123 0 0 Left 0
WINDOW 39 0 0 Left 0
SYMATTR InstName V1
SYMATTR Value 1.5
TEXT 320 40 Left 2 !.dc V1 0 3.3 0.1
